59

O     -5.338248    2.832964   -1.321006
C     -4.711053    1.653747   -1.700266
C     -4.956912    0.624921   -0.617795
O     -4.380805   -0.578319   -0.865577
C     -3.239475   -0.838060   -0.041447
O     -2.278541   -0.158087   -0.251227
C     -1.145880    0.405966   -0.531158
C      0.097063   -0.264012    0.103386
O      1.188265    0.521009   -0.247654
C      2.152195   -0.138619   -0.928729
O      3.298618    0.670187   -1.033177
C      4.414093   -0.055806   -0.653522
C      5.393937    0.038710   -1.781514
N      6.143498    0.099017   -2.649003
C      5.081103    0.447427    0.545826
C      4.379136    0.992327    1.624653
C      5.036664    1.406737    2.790648
C      6.411929    1.274858    2.880697
C      7.107131    0.744989    1.833515
C      6.441033    0.343770    0.689529
C      1.582350   -0.555064   -2.277817
O      2.549637   -1.139931   -3.091502
C      0.560545   -1.624536   -1.946291
O      1.008847   -2.834261   -2.414540
C      0.176505   -1.639339   -0.500085
O      0.969284   -2.506082    0.205965
C     -3.738390   -0.971041    1.424741
O     -4.418719   -2.149601    1.612934
C     -4.630322    0.165842    1.801728
O     -4.216370    0.784715    2.987899
C     -4.732065    1.218163    0.732792
O     -5.798680    2.055690    1.108281
H     -4.833556    3.348539   -0.641862
H     -3.634967    1.820862   -1.900649
H     -5.201416    1.338638   -2.656154
H     -6.072435    0.429188   -0.666669
H     -3.117395   -1.961409   -0.285146
H     -1.072131    1.521322   -0.361089
H     -0.941803    0.323799   -1.631472
H      0.011104   -0.312024    1.173735
H      2.511134   -1.103095   -0.438145
H      4.160757   -1.124516   -0.436889
H      3.307737    1.113543    1.574742
H      4.518571    1.824472    3.628019
H      6.920274    1.593252    3.800342
H      8.194359    0.655972    1.934227
H      6.984416   -0.081944   -0.158645
H      1.179280    0.318586   -2.797553
H      2.118901   -1.795960   -3.672409
H     -0.351593   -1.376830   -2.558650
H      1.824902   -3.176795   -1.971218
H     -0.862128   -2.071875   -0.453280
H      0.758443   -3.463661    0.097728
H     -2.875315   -0.965697    2.111555
H     -3.812171   -2.915728    1.521391
H     -5.675621   -0.215892    1.980226
H     -3.998028    1.749358    2.824944
H     -3.839305    1.861589    0.734048
H     -6.608388    1.838031    0.547725
