36

C      5.443453   -0.287759    0.909659
C      4.686777   -1.051130    1.763486
C      3.296135   -1.034357    1.611945
C      2.723450   -0.262920    0.622905
C      3.495255    0.502653   -0.232164
C      4.881721    0.483518   -0.078147
C      2.936466    1.284837   -1.232933
C      1.570721    1.319559   -1.403910
C      0.772443    0.574810   -0.576582
C      1.332466   -0.215392    0.434028
C      0.552972   -0.960945    1.264083
C     -0.824929   -0.944116    1.113615
C     -1.401785   -0.187626    0.142268
C     -2.785432   -0.181385    0.004060
C     -3.585858   -0.937636    0.845071
C     -4.971605   -0.941450    0.718832
C     -5.515598   -0.163604   -0.275309
C     -4.738009    0.593059   -1.118977
C     -3.366516    0.591172   -0.987176
C     -2.562105    1.336235   -1.814271
C     -1.194581    1.343845   -1.694381
C     -0.612750    0.584883   -0.719549
H      6.527466   -0.315084    1.045059
H      5.174341   -1.642388    2.526121
H      2.721137   -1.635338    2.286078
H      5.474646    1.091618   -0.759251
H      3.606995    1.864135   -1.871785
H      1.150724    1.921481   -2.173069
H      0.937985   -1.595303    2.069275
H     -1.393724   -1.544521    1.787641
H     -3.209524   -1.559103    1.633853
H     -5.600500   -1.544137    1.389916
H     -6.602394   -0.165798   -0.375277
H     -5.180998    1.206779   -1.904647
H     -3.085986    1.926259   -2.578850
H     -0.652857    1.944804   -2.371619
