26

C     -2.990499    1.583803    0.099912
C     -3.016033    0.118405   -0.164614
O     -4.080392   -0.540006   -0.663544
C     -3.821425   -1.802930   -0.769765
C     -2.529837   -2.042461   -0.336439
C     -2.038480   -0.794263    0.044440
C     -0.667507   -0.620746    0.525270
O     -0.386665   -1.190386    1.635406
N      0.271650    0.127838   -0.223623
C      1.623979    0.241039    0.263773
C      2.419345    1.312711   -0.169672
C      3.706306    1.410575    0.264466
C      4.272886    0.467956    1.140435
C      3.523642   -0.593041    1.578534
C      2.209075   -0.663201    1.115243
H     -2.765895    1.795909    1.155605
H     -4.018269    1.980703   -0.142306
H     -2.312276    2.126694   -0.563767
H     -4.531199   -2.545297   -1.149728
H     -2.014032   -3.006223   -0.301865
H      0.019441    0.593407   -1.142831
H      1.986833    2.045363   -0.873901
H      4.323947    2.246947   -0.070363
H      5.301567    0.607646    1.440855
H      3.873445   -1.350502    2.234407
H      1.640393   -1.509939    1.449543
